data_image0
_chemical_formula_structural       Eu8Zn8H240C384N64O96
_chemical_formula_sum              "Eu8 Zn8 H240 C384 N64 O96"
_cell_length_a       19.2541
_cell_length_b       19.1848
_cell_length_c       24.5079
_cell_angle_alpha    90
_cell_angle_beta     90
_cell_angle_gamma    90

_space_group_name_H-M_alt    "P 1"
_space_group_IT_number       1

loop_
  _space_group_symop_operation_xyz
  'x, y, z'

loop_
  _atom_site_type_symbol
  _atom_site_label
  _atom_site_symmetry_multiplicity
  _atom_site_fract_x
  _atom_site_fract_y
  _atom_site_fract_z
  _atom_site_occupancy
  Eu  Eu1       1.0  0.12929  0.27424  0.10833  1.0000
  Eu  Eu2       1.0  0.37071  0.72576  0.60833  1.0000
  Eu  Eu3       1.0  0.87071  0.77424  0.39167  1.0000
  Eu  Eu4       1.0  0.62929  0.22576  0.89167  1.0000
  Eu  Eu5       1.0  0.87071  0.72576  0.89167  1.0000
  Eu  Eu6       1.0  0.62929  0.27424  0.39167  1.0000
  Eu  Eu7       1.0  0.12929  0.22576  0.60833  1.0000
  Eu  Eu8       1.0  0.37071  0.77424  0.10833  1.0000
  Zn  Zn1       1.0  0.79311  0.10129  0.13125  1.0000
  Zn  Zn2       1.0  0.70689  0.89871  0.63125  1.0000
  Zn  Zn3       1.0  0.20689  0.60129  0.36875  1.0000
  Zn  Zn4       1.0  0.29311  0.39871  0.86875  1.0000
  Zn  Zn5       1.0  0.20689  0.89871  0.86875  1.0000
  Zn  Zn6       1.0  0.29311  0.10129  0.36875  1.0000
  Zn  Zn7       1.0  0.79311  0.39871  0.63125  1.0000
  Zn  Zn8       1.0  0.70689  0.60129  0.13125  1.0000
  H   H1        1.0  0.19700  0.85870  0.13610  1.0000
  H   H2        1.0  0.30300  0.14130  0.63610  1.0000
  H   H3        1.0  0.80300  0.35870  0.36390  1.0000
  H   H4        1.0  0.69700  0.64130  0.86390  1.0000
  H   H5        1.0  0.80300  0.14130  0.86390  1.0000
  H   H6        1.0  0.69700  0.85870  0.36390  1.0000
  H   H7        1.0  0.19700  0.64130  0.63610  1.0000
  H   H8        1.0  0.30300  0.35870  0.13610  1.0000
  H   H9        1.0  0.08380  0.89690  0.13110  1.0000
  H   H10       1.0  0.41620  0.10310  0.63110  1.0000
  H   H11       1.0  0.91620  0.39690  0.36890  1.0000
  H   H12       1.0  0.58380  0.60310  0.86890  1.0000
  H   H13       1.0  0.91620  0.10310  0.86890  1.0000
  H   H14       1.0  0.58380  0.89690  0.36890  1.0000
  H   H15       1.0  0.08380  0.60310  0.63110  1.0000
  H   H16       1.0  0.41620  0.39690  0.13110  1.0000
  H   H17       1.0  0.14030  0.08110  0.19430  1.0000
  H   H18       1.0  0.35970  0.91890  0.69430  1.0000
  H   H19       1.0  0.85970  0.58110  0.30570  1.0000
  H   H20       1.0  0.64030  0.41890  0.80570  1.0000
  H   H21       1.0  0.85970  0.91890  0.80570  1.0000
  H   H22       1.0  0.64030  0.08110  0.30570  1.0000
  H   H23       1.0  0.14030  0.41890  0.69430  1.0000
  H   H24       1.0  0.35970  0.58110  0.19430  1.0000
  H   H25       1.0  0.25270  0.04250  0.20030  1.0000
  H   H26       1.0  0.24730  0.95750  0.70030  1.0000
  H   H27       1.0  0.74730  0.54250  0.29970  1.0000
  H   H28       1.0  0.75270  0.45750  0.79970  1.0000
  H   H29       1.0  0.74730  0.95750  0.79970  1.0000
  H   H30       1.0  0.75270  0.04250  0.29970  1.0000
  H   H31       1.0  0.25270  0.45750  0.70030  1.0000
  H   H32       1.0  0.24730  0.54250  0.20030  1.0000
  H   H33       1.0  0.74090  0.19550  0.23100  1.0000
  H   H34       1.0  0.75910  0.80450  0.73100  1.0000
  H   H35       1.0  0.25910  0.69550  0.26900  1.0000
  H   H36       1.0  0.24090  0.30450  0.76900  1.0000
  H   H37       1.0  0.25910  0.80450  0.76900  1.0000
  H   H38       1.0  0.24090  0.19550  0.26900  1.0000
  H   H39       1.0  0.74090  0.30450  0.73100  1.0000
  H   H40       1.0  0.75910  0.69550  0.23100  1.0000
  H   H41       1.0  0.78970  0.26520  0.29690  1.0000
  H   H42       1.0  0.71030  0.73480  0.79690  1.0000
  H   H43       1.0  0.21030  0.76520  0.20310  1.0000
  H   H44       1.0  0.28970  0.23480  0.70310  1.0000
  H   H45       1.0  0.21030  0.73480  0.70310  1.0000
  H   H46       1.0  0.28970  0.26520  0.20310  1.0000
  H   H47       1.0  0.78970  0.23480  0.79690  1.0000
  H   H48       1.0  0.71030  0.76520  0.29690  1.0000
  H   H49       1.0  0.90780  0.25790  0.31230  1.0000
  H   H50       1.0  0.59220  0.74210  0.81230  1.0000
  H   H51       1.0  0.09220  0.75790  0.18770  1.0000
  H   H52       1.0  0.40780  0.24210  0.68770  1.0000
  H   H53       1.0  0.09220  0.74210  0.68770  1.0000
  H   H54       1.0  0.40780  0.25790  0.18770  1.0000
  H   H55       1.0  0.90780  0.24210  0.81230  1.0000
  H   H56       1.0  0.59220  0.75790  0.31230  1.0000
  H   H57       1.0  0.97280  0.17640  0.26540  1.0000
  H   H58       1.0  0.52720  0.82360  0.76540  1.0000
  H   H59       1.0  0.02720  0.67640  0.23460  1.0000
  H   H60       1.0  0.47280  0.32360  0.73460  1.0000
  H   H61       1.0  0.02720  0.82360  0.73460  1.0000
  H   H62       1.0  0.47280  0.17640  0.23460  1.0000
  H   H63       1.0  0.97280  0.32360  0.76540  1.0000
  H   H64       1.0  0.52720  0.67640  0.26540  1.0000
  H   H65       1.0  0.02310  0.07950  0.22310  1.0000
  H   H66       1.0  0.47690  0.92050  0.72310  1.0000
  H   H67       1.0  0.97690  0.57950  0.27690  1.0000
  H   H68       1.0  0.52310  0.42050  0.77690  1.0000
  H   H69       1.0  0.97690  0.92050  0.77690  1.0000
  H   H70       1.0  0.52310  0.07950  0.27690  1.0000
  H   H71       1.0  0.02310  0.42050  0.72310  1.0000
  H   H72       1.0  0.47690  0.57950  0.22310  1.0000
  H   H73       1.0  0.00700  0.97010  0.08340  1.0000
  H   H74       1.0  0.49300  0.02990  0.58340  1.0000
  H   H75       1.0  0.99300  0.47010  0.41660  1.0000
  H   H76       1.0  0.50700  0.52990  0.91660  1.0000
  H   H77       1.0  0.99300  0.02990  0.91660  1.0000
  H   H78       1.0  0.50700  0.97010  0.41660  1.0000
  H   H79       1.0  0.00700  0.52990  0.58340  1.0000
  H   H80       1.0  0.49300  0.47010  0.08340  1.0000
  H   H81       1.0  0.93290  0.93970  0.01620  1.0000
  H   H82       1.0  0.56710  0.06030  0.51620  1.0000
  H   H83       1.0  0.06710  0.43970  0.48380  1.0000
  H   H84       1.0  0.43290  0.56030  0.98380  1.0000
  H   H85       1.0  0.06710  0.06030  0.98380  1.0000
  H   H86       1.0  0.43290  0.93970  0.48380  1.0000
  H   H87       1.0  0.93290  0.56030  0.51620  1.0000
  H   H88       1.0  0.56710  0.43970  0.01620  1.0000
  H   H89       1.0  0.85690  0.92570  0.94360  1.0000
  H   H90       1.0  0.64310  0.07430  0.44360  1.0000
  H   H91       1.0  0.14310  0.42570  0.55640  1.0000
  H   H92       1.0  0.35690  0.57430  0.05640  1.0000
  H   H93       1.0  0.14310  0.07430  0.05640  1.0000
  H   H94       1.0  0.35690  0.92570  0.55640  1.0000
  H   H95       1.0  0.85690  0.57430  0.44360  1.0000
  H   H96       1.0  0.64310  0.42570  0.94360  1.0000
  H   H97       1.0  0.75810  0.99280  0.93990  1.0000
  H   H98       1.0  0.74190  0.00720  0.43990  1.0000
  H   H99       1.0  0.24190  0.49280  0.56010  1.0000
  H   H100      1.0  0.25810  0.50720  0.06010  1.0000
  H   H101      1.0  0.24190  0.00720  0.06010  1.0000
  H   H102      1.0  0.25810  0.99280  0.56010  1.0000
  H   H103      1.0  0.75810  0.50720  0.43990  1.0000
  H   H104      1.0  0.74190  0.49280  0.93990  1.0000
  H   H105      1.0  0.73490  0.06970  0.00980  1.0000
  H   H106      1.0  0.76510  0.93030  0.50980  1.0000
  H   H107      1.0  0.26510  0.56970  0.49020  1.0000
  H   H108      1.0  0.23490  0.43030  0.99020  1.0000
  H   H109      1.0  0.26510  0.93030  0.99020  1.0000
  H   H110      1.0  0.23490  0.06970  0.49020  1.0000
  H   H111      1.0  0.73490  0.43030  0.50980  1.0000
  H   H112      1.0  0.76510  0.56970  0.00980  1.0000
  H   H113      1.0  0.81980  0.94710  0.18090  1.0000
  H   H114      1.0  0.68020  0.05290  0.68090  1.0000
  H   H115      1.0  0.18020  0.44710  0.31910  1.0000
  H   H116      1.0  0.31980  0.55290  0.81910  1.0000
  H   H117      1.0  0.18020  0.05290  0.81910  1.0000
  H   H118      1.0  0.31980  0.94710  0.31910  1.0000
  H   H119      1.0  0.81980  0.55290  0.68090  1.0000
  H   H120      1.0  0.68020  0.44710  0.18090  1.0000
  H   H121      1.0  0.75700  0.85240  0.21050  1.0000
  H   H122      1.0  0.74300  0.14760  0.71050  1.0000
  H   H123      1.0  0.24300  0.35240  0.28950  1.0000
  H   H124      1.0  0.25700  0.64760  0.78950  1.0000
  H   H125      1.0  0.24300  0.14760  0.78950  1.0000
  H   H126      1.0  0.25700  0.85240  0.28950  1.0000
  H   H127      1.0  0.75700  0.64760  0.71050  1.0000
  H   H128      1.0  0.74300  0.35240  0.21050  1.0000
  H   H129      1.0  0.63860  0.85910  0.21400  1.0000
  H   H130      1.0  0.86140  0.14090  0.71400  1.0000
  H   H131      1.0  0.36140  0.35910  0.28600  1.0000
  H   H132      1.0  0.13860  0.64090  0.78600  1.0000
  H   H133      1.0  0.36140  0.14090  0.78600  1.0000
  H   H134      1.0  0.13860  0.85910  0.28600  1.0000
  H   H135      1.0  0.63860  0.64090  0.71400  1.0000
  H   H136      1.0  0.86140  0.35910  0.21400  1.0000
  H   H137      1.0  0.58270  0.96020  0.18450  1.0000
  H   H138      1.0  0.91730  0.03980  0.68450  1.0000
  H   H139      1.0  0.41730  0.46020  0.31550  1.0000
  H   H140      1.0  0.08270  0.53980  0.81550  1.0000
  H   H141      1.0  0.41730  0.03980  0.81550  1.0000
  H   H142      1.0  0.08270  0.96020  0.31550  1.0000
  H   H143      1.0  0.58270  0.53980  0.68450  1.0000
  H   H144      1.0  0.91730  0.46020  0.18450  1.0000
  H   H145      1.0  0.53840  0.05660  0.14670  1.0000
  H   H146      1.0  0.96160  0.94340  0.64670  1.0000
  H   H147      1.0  0.46160  0.55660  0.35330  1.0000
  H   H148      1.0  0.03840  0.44340  0.85330  1.0000
  H   H149      1.0  0.46160  0.94340  0.85330  1.0000
  H   H150      1.0  0.03840  0.05660  0.35330  1.0000
  H   H151      1.0  0.53840  0.44340  0.64670  1.0000
  H   H152      1.0  0.96160  0.55660  0.14670  1.0000
  H   H153      1.0  0.58620  0.23730  0.07290  1.0000
  H   H154      1.0  0.91380  0.76270  0.57290  1.0000
  H   H155      1.0  0.41380  0.73730  0.42710  1.0000
  H   H156      1.0  0.08620  0.26270  0.92710  1.0000
  H   H157      1.0  0.41380  0.76270  0.92710  1.0000
  H   H158      1.0  0.08620  0.23730  0.42710  1.0000
  H   H159      1.0  0.58620  0.26270  0.57290  1.0000
  H   H160      1.0  0.91380  0.73730  0.07290  1.0000
  H   H161      1.0  0.67350  0.31490  0.05990  1.0000
  H   H162      1.0  0.82650  0.68510  0.55990  1.0000
  H   H163      1.0  0.32650  0.81490  0.44010  1.0000
  H   H164      1.0  0.17350  0.18510  0.94010  1.0000
  H   H165      1.0  0.32650  0.68510  0.94010  1.0000
  H   H166      1.0  0.17350  0.31490  0.44010  1.0000
  H   H167      1.0  0.67350  0.18510  0.55990  1.0000
  H   H168      1.0  0.82650  0.81490  0.05990  1.0000
  H   H169      1.0  0.77120  0.38200  0.04080  1.0000
  H   H170      1.0  0.72880  0.61800  0.54080  1.0000
  H   H171      1.0  0.22880  0.88200  0.45920  1.0000
  H   H172      1.0  0.27120  0.11800  0.95920  1.0000
  H   H173      1.0  0.22880  0.61800  0.95920  1.0000
  H   H174      1.0  0.27120  0.38200  0.45920  1.0000
  H   H175      1.0  0.77120  0.11800  0.54080  1.0000
  H   H176      1.0  0.72880  0.88200  0.04080  1.0000
  H   H177      1.0  0.88040  0.33600  0.05540  1.0000
  H   H178      1.0  0.61960  0.66400  0.55540  1.0000
  H   H179      1.0  0.11960  0.83600  0.44460  1.0000
  H   H180      1.0  0.38040  0.16400  0.94460  1.0000
  H   H181      1.0  0.11960  0.66400  0.94460  1.0000
  H   H182      1.0  0.38040  0.33600  0.44460  1.0000
  H   H183      1.0  0.88040  0.16400  0.55540  1.0000
  H   H184      1.0  0.61960  0.83600  0.05540  1.0000
  H   H185      1.0  0.88980  0.22500  0.08960  1.0000
  H   H186      1.0  0.61020  0.77500  0.58960  1.0000
  H   H187      1.0  0.11020  0.72500  0.41040  1.0000
  H   H188      1.0  0.38980  0.27500  0.91040  1.0000
  H   H189      1.0  0.11020  0.77500  0.91040  1.0000
  H   H190      1.0  0.38980  0.22500  0.41040  1.0000
  H   H191      1.0  0.88980  0.27500  0.58960  1.0000
  H   H192      1.0  0.61020  0.72500  0.08960  1.0000
  H   H193      1.0  0.43490  0.06990  0.12080  1.0000
  H   H194      1.0  0.06510  0.93010  0.62080  1.0000
  H   H195      1.0  0.56510  0.56990  0.37920  1.0000
  H   H196      1.0  0.93490  0.43010  0.87920  1.0000
  H   H197      1.0  0.56510  0.93010  0.87920  1.0000
  H   H198      1.0  0.93490  0.06990  0.37920  1.0000
  H   H199      1.0  0.43490  0.43010  0.62080  1.0000
  H   H200      1.0  0.06510  0.56990  0.12080  1.0000
  H   H201      1.0  0.31950  0.09550  0.11010  1.0000
  H   H202      1.0  0.18050  0.90450  0.61010  1.0000
  H   H203      1.0  0.68050  0.59550  0.38990  1.0000
  H   H204      1.0  0.81950  0.40450  0.88990  1.0000
  H   H205      1.0  0.68050  0.90450  0.88990  1.0000
  H   H206      1.0  0.81950  0.09550  0.38990  1.0000
  H   H207      1.0  0.31950  0.40450  0.61010  1.0000
  H   H208      1.0  0.18050  0.59550  0.11010  1.0000
  H   H209      1.0  0.36960  0.28450  0.05290  1.0000
  H   H210      1.0  0.13040  0.71550  0.55290  1.0000
  H   H211      1.0  0.63040  0.78450  0.44710  1.0000
  H   H212      1.0  0.86960  0.21550  0.94710  1.0000
  H   H213      1.0  0.63040  0.71550  0.94710  1.0000
  H   H214      1.0  0.86960  0.28450  0.44710  1.0000
  H   H215      1.0  0.36960  0.21550  0.55290  1.0000
  H   H216      1.0  0.13040  0.78450  0.05290  1.0000
  H   H217      1.0  0.48490  0.25940  0.06470  1.0000
  H   H218      1.0  0.01510  0.74060  0.56470  1.0000
  H   H219      1.0  0.51510  0.75940  0.43530  1.0000
  H   H220      1.0  0.98490  0.24060  0.93530  1.0000
  H   H221      1.0  0.51510  0.74060  0.93530  1.0000
  H   H222      1.0  0.98490  0.25940  0.43530  1.0000
  H   H223      1.0  0.48490  0.24060  0.56470  1.0000
  H   H224      1.0  0.01510  0.75940  0.06470  1.0000
  H   H225      1.0  0.11600  0.46700  0.97900  1.0000
  H   H226      1.0  0.38400  0.53300  0.47900  1.0000
  H   H227      1.0  0.88400  0.96700  0.52100  1.0000
  H   H228      1.0  0.61600  0.03300  0.02100  1.0000
  H   H229      1.0  0.88400  0.53300  0.02100  1.0000
  H   H230      1.0  0.61600  0.46700  0.52100  1.0000
  H   H231      1.0  0.11600  0.03300  0.47900  1.0000
  H   H232      1.0  0.38400  0.96700  0.97900  1.0000
  H   H233      1.0  0.94200  0.43400  0.06200  1.0000
  H   H234      1.0  0.55800  0.56600  0.56200  1.0000
  H   H235      1.0  0.05800  0.93400  0.43800  1.0000
  H   H236      1.0  0.44200  0.06600  0.93800  1.0000
  H   H237      1.0  0.05800  0.56600  0.93800  1.0000
  H   H238      1.0  0.44200  0.43400  0.43800  1.0000
  H   H239      1.0  0.94200  0.06600  0.56200  1.0000
  H   H240      1.0  0.55800  0.93400  0.06200  1.0000
  C   C1        1.0  0.31140  0.92250  0.17140  1.0000
  C   C2        1.0  0.18860  0.07750  0.67140  1.0000
  C   C3        1.0  0.68860  0.42250  0.32860  1.0000
  C   C4        1.0  0.81140  0.57750  0.82860  1.0000
  C   C5        1.0  0.68860  0.07750  0.82860  1.0000
  C   C6        1.0  0.81140  0.92250  0.32860  1.0000
  C   C7        1.0  0.31140  0.57750  0.67140  1.0000
  C   C8        1.0  0.18860  0.42250  0.17140  1.0000
  C   C9        1.0  0.23640  0.94690  0.16860  1.0000
  C   C10       1.0  0.26360  0.05310  0.66860  1.0000
  C   C11       1.0  0.76360  0.44690  0.33140  1.0000
  C   C12       1.0  0.73640  0.55310  0.83140  1.0000
  C   C13       1.0  0.76360  0.05310  0.83140  1.0000
  C   C14       1.0  0.73640  0.94690  0.33140  1.0000
  C   C15       1.0  0.23640  0.55310  0.66860  1.0000
  C   C16       1.0  0.26360  0.44690  0.16860  1.0000
  C   C17       1.0  0.18560  0.90340  0.14790  1.0000
  C   C18       1.0  0.31440  0.09660  0.64790  1.0000
  C   C19       1.0  0.81440  0.40340  0.35210  1.0000
  C   C20       1.0  0.68560  0.59660  0.85210  1.0000
  C   C21       1.0  0.81440  0.09660  0.85210  1.0000
  C   C22       1.0  0.68560  0.90340  0.35210  1.0000
  C   C23       1.0  0.18560  0.59660  0.64790  1.0000
  C   C24       1.0  0.31440  0.40340  0.14790  1.0000
  C   C25       1.0  0.11800  0.92650  0.14470  1.0000
  C   C26       1.0  0.38200  0.07350  0.64470  1.0000
  C   C27       1.0  0.88200  0.42650  0.35530  1.0000
  C   C28       1.0  0.61800  0.57350  0.85530  1.0000
  C   C29       1.0  0.88200  0.07350  0.85530  1.0000
  C   C30       1.0  0.61800  0.92650  0.35530  1.0000
  C   C31       1.0  0.11800  0.57350  0.64470  1.0000
  C   C32       1.0  0.38200  0.42650  0.14470  1.0000
  C   C33       1.0  0.10000  0.99350  0.16160  1.0000
  C   C34       1.0  0.40000  0.00650  0.66160  1.0000
  C   C35       1.0  0.90000  0.49350  0.33840  1.0000
  C   C36       1.0  0.60000  0.50650  0.83840  1.0000
  C   C37       1.0  0.90000  0.00650  0.83840  1.0000
  C   C38       1.0  0.60000  0.99350  0.33840  1.0000
  C   C39       1.0  0.10000  0.50650  0.66160  1.0000
  C   C40       1.0  0.40000  0.49350  0.16160  1.0000
  C   C41       1.0  0.15150  0.03630  0.18260  1.0000
  C   C42       1.0  0.34850  0.96370  0.68260  1.0000
  C   C43       1.0  0.84850  0.53630  0.31740  1.0000
  C   C44       1.0  0.65150  0.46370  0.81740  1.0000
  C   C45       1.0  0.84850  0.96370  0.81740  1.0000
  C   C46       1.0  0.65150  0.03630  0.31740  1.0000
  C   C47       1.0  0.15150  0.46370  0.68260  1.0000
  C   C48       1.0  0.34850  0.53630  0.18260  1.0000
  C   C49       1.0  0.21870  0.01330  0.18610  1.0000
  C   C50       1.0  0.28130  0.98670  0.68610  1.0000
  C   C51       1.0  0.78130  0.51330  0.31390  1.0000
  C   C52       1.0  0.71870  0.48670  0.81390  1.0000
  C   C53       1.0  0.78130  0.98670  0.81390  1.0000
  C   C54       1.0  0.71870  0.01330  0.31390  1.0000
  C   C55       1.0  0.21870  0.48670  0.68610  1.0000
  C   C56       1.0  0.28130  0.51330  0.18610  1.0000
  C   C57       1.0  0.78830  0.19220  0.23770  1.0000
  C   C58       1.0  0.71170  0.80780  0.73770  1.0000
  C   C59       1.0  0.21170  0.69220  0.26230  1.0000
  C   C60       1.0  0.28830  0.30780  0.76230  1.0000
  C   C61       1.0  0.21170  0.80780  0.76230  1.0000
  C   C62       1.0  0.28830  0.19220  0.26230  1.0000
  C   C63       1.0  0.78830  0.30780  0.73770  1.0000
  C   C64       1.0  0.71170  0.69220  0.23770  1.0000
  C   C65       1.0  0.81700  0.23420  0.27720  1.0000
  C   C66       1.0  0.68300  0.76580  0.77720  1.0000
  C   C67       1.0  0.18300  0.73420  0.22280  1.0000
  C   C68       1.0  0.31700  0.26580  0.72280  1.0000
  C   C69       1.0  0.18300  0.76580  0.72280  1.0000
  C   C70       1.0  0.31700  0.23420  0.22280  1.0000
  C   C71       1.0  0.81700  0.26580  0.77720  1.0000
  C   C72       1.0  0.68300  0.73420  0.27720  1.0000
  C   C73       1.0  0.88670  0.22910  0.28670  1.0000
  C   C74       1.0  0.61330  0.77090  0.78670  1.0000
  C   C75       1.0  0.11330  0.72910  0.21330  1.0000
  C   C76       1.0  0.38670  0.27090  0.71330  1.0000
  C   C77       1.0  0.11330  0.77090  0.71330  1.0000
  C   C78       1.0  0.38670  0.22910  0.21330  1.0000
  C   C79       1.0  0.88670  0.27090  0.78670  1.0000
  C   C80       1.0  0.61330  0.72910  0.28670  1.0000
  C   C81       1.0  0.92560  0.18120  0.25820  1.0000
  C   C82       1.0  0.57440  0.81880  0.75820  1.0000
  C   C83       1.0  0.07440  0.68120  0.24180  1.0000
  C   C84       1.0  0.42560  0.31880  0.74180  1.0000
  C   C85       1.0  0.07440  0.81880  0.74180  1.0000
  C   C86       1.0  0.42560  0.18120  0.24180  1.0000
  C   C87       1.0  0.92560  0.31880  0.75820  1.0000
  C   C88       1.0  0.57440  0.68120  0.25820  1.0000
  C   C89       1.0  0.89420  0.14040  0.21906  1.0000
  C   C90       1.0  0.60580  0.85960  0.71906  1.0000
  C   C91       1.0  0.10580  0.64040  0.28094  1.0000
  C   C92       1.0  0.39420  0.35960  0.78094  1.0000
  C   C93       1.0  0.10580  0.85960  0.78094  1.0000
  C   C94       1.0  0.39420  0.14040  0.28094  1.0000
  C   C95       1.0  0.89420  0.35960  0.71906  1.0000
  C   C96       1.0  0.60580  0.64040  0.21906  1.0000
  C   C97       1.0  0.93180  0.09050  0.18330  1.0000
  C   C98       1.0  0.56820  0.90950  0.68330  1.0000
  C   C99       1.0  0.06820  0.59050  0.31670  1.0000
  C   C100      1.0  0.43180  0.40950  0.81670  1.0000
  C   C101      1.0  0.06820  0.90950  0.81670  1.0000
  C   C102      1.0  0.43180  0.09050  0.31670  1.0000
  C   C103      1.0  0.93180  0.40950  0.68330  1.0000
  C   C104      1.0  0.56820  0.59050  0.18330  1.0000
  C   C105      1.0  0.99830  0.06570  0.19230  1.0000
  C   C106      1.0  0.50170  0.93430  0.69230  1.0000
  C   C107      1.0  0.00170  0.56570  0.30770  1.0000
  C   C108      1.0  0.49830  0.43430  0.80770  1.0000
  C   C109      1.0  0.00170  0.93430  0.80770  1.0000
  C   C110      1.0  0.49830  0.06570  0.30770  1.0000
  C   C111      1.0  0.99830  0.43430  0.69230  1.0000
  C   C112      1.0  0.50170  0.56570  0.19230  1.0000
  C   C113      1.0  0.02780  0.01970  0.15460  1.0000
  C   C114      1.0  0.47220  0.98030  0.65460  1.0000
  C   C115      1.0  0.97220  0.51970  0.34540  1.0000
  C   C116      1.0  0.52780  0.48030  0.84540  1.0000
  C   C117      1.0  0.97220  0.98030  0.84540  1.0000
  C   C118      1.0  0.52780  0.01970  0.34540  1.0000
  C   C119      1.0  0.02780  0.48030  0.65460  1.0000
  C   C120      1.0  0.47220  0.51970  0.15460  1.0000
  C   C121      1.0  0.98850  0.00050  0.10920  1.0000
  C   C122      1.0  0.51150  0.99950  0.60920  1.0000
  C   C123      1.0  0.01150  0.50050  0.39080  1.0000
  C   C124      1.0  0.48850  0.49950  0.89080  1.0000
  C   C125      1.0  0.01150  0.99950  0.89080  1.0000
  C   C126      1.0  0.48850  0.00050  0.39080  1.0000
  C   C127      1.0  0.98850  0.49950  0.60920  1.0000
  C   C128      1.0  0.51150  0.50050  0.10920  1.0000
  C   C129      1.0  0.92230  0.02670  0.10240  1.0000
  C   C130      1.0  0.57770  0.97330  0.60240  1.0000
  C   C131      1.0  0.07770  0.52670  0.39760  1.0000
  C   C132      1.0  0.42230  0.47330  0.89760  1.0000
  C   C133      1.0  0.07770  0.97330  0.89760  1.0000
  C   C134      1.0  0.42230  0.02670  0.39760  1.0000
  C   C135      1.0  0.92230  0.47330  0.60240  1.0000
  C   C136      1.0  0.57770  0.52670  0.10240  1.0000
  C   C137      1.0  0.87690  0.01260  0.05530  1.0000
  C   C138      1.0  0.62310  0.98740  0.55530  1.0000
  C   C139      1.0  0.12310  0.51260  0.44470  1.0000
  C   C140      1.0  0.37690  0.48740  0.94470  1.0000
  C   C141      1.0  0.12310  0.98740  0.94470  1.0000
  C   C142      1.0  0.37690  0.01260  0.44470  1.0000
  C   C143      1.0  0.87690  0.48740  0.55530  1.0000
  C   C144      1.0  0.62310  0.51260  0.05530  1.0000
  C   C145      1.0  0.89230  0.96580  0.01460  1.0000
  C   C146      1.0  0.60770  0.03420  0.51460  1.0000
  C   C147      1.0  0.10770  0.46580  0.48540  1.0000
  C   C148      1.0  0.39230  0.53420  0.98540  1.0000
  C   C149      1.0  0.10770  0.03420  0.98540  1.0000
  C   C150      1.0  0.39230  0.96580  0.48540  1.0000
  C   C151      1.0  0.89230  0.53420  0.51460  1.0000
  C   C152      1.0  0.60770  0.46580  0.01460  1.0000
  C   C153      1.0  0.84720  0.95770  0.97110  1.0000
  C   C154      1.0  0.65280  0.04230  0.47110  1.0000
  C   C155      1.0  0.15280  0.45770  0.52890  1.0000
  C   C156      1.0  0.34720  0.54230  0.02890  1.0000
  C   C157      1.0  0.15280  0.04230  0.02890  1.0000
  C   C158      1.0  0.34720  0.95770  0.52890  1.0000
  C   C159      1.0  0.84720  0.54230  0.47110  1.0000
  C   C160      1.0  0.65280  0.45770  0.97110  1.0000
  C   C161      1.0  0.78860  0.99680  0.96910  1.0000
  C   C162      1.0  0.71140  0.00320  0.46910  1.0000
  C   C163      1.0  0.21140  0.49680  0.53090  1.0000
  C   C164      1.0  0.28860  0.50320  0.03090  1.0000
  C   C165      1.0  0.21140  0.00320  0.03090  1.0000
  C   C166      1.0  0.28860  0.99680  0.53090  1.0000
  C   C167      1.0  0.78860  0.50320  0.46910  1.0000
  C   C168      1.0  0.71140  0.49680  0.96910  1.0000
  C   C169      1.0  0.77500  0.04280  0.01130  1.0000
  C   C170      1.0  0.72500  0.95720  0.51130  1.0000
  C   C171      1.0  0.22500  0.54280  0.48870  1.0000
  C   C172      1.0  0.27500  0.45720  0.98870  1.0000
  C   C173      1.0  0.22500  0.95720  0.98870  1.0000
  C   C174      1.0  0.27500  0.04280  0.48870  1.0000
  C   C175      1.0  0.77500  0.45720  0.51130  1.0000
  C   C176      1.0  0.72500  0.54280  0.01130  1.0000
  C   C177      1.0  0.77150  0.94930  0.18090  1.0000
  C   C178      1.0  0.72850  0.05070  0.68090  1.0000
  C   C179      1.0  0.22850  0.44930  0.31910  1.0000
  C   C180      1.0  0.27150  0.55070  0.81910  1.0000
  C   C181      1.0  0.22850  0.05070  0.81910  1.0000
  C   C182      1.0  0.27150  0.94930  0.31910  1.0000
  C   C183      1.0  0.77150  0.55070  0.68090  1.0000
  C   C184      1.0  0.72850  0.44930  0.18090  1.0000
  C   C185      1.0  0.73420  0.89270  0.19930  1.0000
  C   C186      1.0  0.76580  0.10730  0.69930  1.0000
  C   C187      1.0  0.26580  0.39270  0.30070  1.0000
  C   C188      1.0  0.23420  0.60730  0.80070  1.0000
  C   C189      1.0  0.26580  0.10730  0.80070  1.0000
  C   C190      1.0  0.23420  0.89270  0.30070  1.0000
  C   C191      1.0  0.73420  0.60730  0.69930  1.0000
  C   C192      1.0  0.76580  0.39270  0.19930  1.0000
  C   C193      1.0  0.66440  0.89660  0.20100  1.0000
  C   C194      1.0  0.83560  0.10340  0.70100  1.0000
  C   C195      1.0  0.33560  0.39660  0.29900  1.0000
  C   C196      1.0  0.16440  0.60340  0.79900  1.0000
  C   C197      1.0  0.33560  0.10340  0.79900  1.0000
  C   C198      1.0  0.16440  0.89660  0.29900  1.0000
  C   C199      1.0  0.66440  0.60340  0.70100  1.0000
  C   C200      1.0  0.83560  0.39660  0.20100  1.0000
  C   C201      1.0  0.63090  0.95670  0.18330  1.0000
  C   C202      1.0  0.86910  0.04330  0.68330  1.0000
  C   C203      1.0  0.36910  0.45670  0.31670  1.0000
  C   C204      1.0  0.13090  0.54330  0.81670  1.0000
  C   C205      1.0  0.36910  0.04330  0.81670  1.0000
  C   C206      1.0  0.13090  0.95670  0.31670  1.0000
  C   C207      1.0  0.63090  0.54330  0.68330  1.0000
  C   C208      1.0  0.86910  0.45670  0.18330  1.0000
  C   C209      1.0  0.67110  0.01120  0.16370  1.0000
  C   C210      1.0  0.82890  0.98880  0.66370  1.0000
  C   C211      1.0  0.32890  0.51120  0.33630  1.0000
  C   C212      1.0  0.17110  0.48880  0.83630  1.0000
  C   C213      1.0  0.32890  0.98880  0.83630  1.0000
  C   C214      1.0  0.17110  0.01120  0.33630  1.0000
  C   C215      1.0  0.67110  0.48880  0.66370  1.0000
  C   C216      1.0  0.82890  0.51120  0.16370  1.0000
  C   C217      1.0  0.64070  0.07690  0.14113  1.0000
  C   C218      1.0  0.85930  0.92310  0.64113  1.0000
  C   C219      1.0  0.35930  0.57690  0.35887  1.0000
  C   C220      1.0  0.14070  0.42310  0.85887  1.0000
  C   C221      1.0  0.35930  0.92310  0.85887  1.0000
  C   C222      1.0  0.14070  0.07690  0.35887  1.0000
  C   C223      1.0  0.64070  0.42310  0.64113  1.0000
  C   C224      1.0  0.85930  0.57690  0.14113  1.0000
  C   C225      1.0  0.57060  0.08870  0.13390  1.0000
  C   C226      1.0  0.92940  0.91130  0.63390  1.0000
  C   C227      1.0  0.42940  0.58870  0.36610  1.0000
  C   C228      1.0  0.07060  0.41130  0.86610  1.0000
  C   C229      1.0  0.42940  0.91130  0.86610  1.0000
  C   C230      1.0  0.07060  0.08870  0.36610  1.0000
  C   C231      1.0  0.57060  0.41130  0.63390  1.0000
  C   C232      1.0  0.92940  0.58870  0.13390  1.0000
  C   C233      1.0  0.54810  0.14930  0.10721  1.0000
  C   C234      1.0  0.95190  0.85070  0.60721  1.0000
  C   C235      1.0  0.45190  0.64930  0.39279  1.0000
  C   C236      1.0  0.04810  0.35070  0.89279  1.0000
  C   C237      1.0  0.45190  0.85070  0.89279  1.0000
  C   C238      1.0  0.04810  0.14930  0.39279  1.0000
  C   C239      1.0  0.54810  0.35070  0.60721  1.0000
  C   C240      1.0  0.95190  0.64930  0.10721  1.0000
  C   C241      1.0  0.59900  0.19660  0.09090  1.0000
  C   C242      1.0  0.90100  0.80340  0.59090  1.0000
  C   C243      1.0  0.40100  0.69660  0.40910  1.0000
  C   C244      1.0  0.09900  0.30340  0.90910  1.0000
  C   C245      1.0  0.40100  0.80340  0.90910  1.0000
  C   C246      1.0  0.09900  0.19660  0.40910  1.0000
  C   C247      1.0  0.59900  0.30340  0.59090  1.0000
  C   C248      1.0  0.90100  0.69660  0.09090  1.0000
  C   C249      1.0  0.66800  0.18360  0.10120  1.0000
  C   C250      1.0  0.83200  0.81640  0.60120  1.0000
  C   C251      1.0  0.33200  0.68360  0.39880  1.0000
  C   C252      1.0  0.16800  0.31640  0.89880  1.0000
  C   C253      1.0  0.33200  0.81640  0.89880  1.0000
  C   C254      1.0  0.16800  0.18360  0.39880  1.0000
  C   C255      1.0  0.66800  0.31640  0.60120  1.0000
  C   C256      1.0  0.83200  0.68360  0.10120  1.0000
  C   C257      1.0  0.72700  0.23090  0.08650  1.0000
  C   C258      1.0  0.77300  0.76910  0.58650  1.0000
  C   C259      1.0  0.27300  0.73090  0.41350  1.0000
  C   C260      1.0  0.22700  0.26910  0.91350  1.0000
  C   C261      1.0  0.27300  0.76910  0.91350  1.0000
  C   C262      1.0  0.22700  0.23090  0.41350  1.0000
  C   C263      1.0  0.72700  0.26910  0.58650  1.0000
  C   C264      1.0  0.77300  0.73090  0.08650  1.0000
  C   C265      1.0  0.71780  0.29730  0.06590  1.0000
  C   C266      1.0  0.78220  0.70270  0.56590  1.0000
  C   C267      1.0  0.28220  0.79730  0.43410  1.0000
  C   C268      1.0  0.21780  0.20270  0.93410  1.0000
  C   C269      1.0  0.28220  0.70270  0.93410  1.0000
  C   C270      1.0  0.21780  0.29730  0.43410  1.0000
  C   C271      1.0  0.71780  0.20270  0.56590  1.0000
  C   C272      1.0  0.78220  0.79730  0.06590  1.0000
  C   C273      1.0  0.77610  0.33700  0.05440  1.0000
  C   C274      1.0  0.72390  0.66300  0.55440  1.0000
  C   C275      1.0  0.22390  0.83700  0.44560  1.0000
  C   C276      1.0  0.27610  0.16300  0.94560  1.0000
  C   C277      1.0  0.22390  0.66300  0.94560  1.0000
  C   C278      1.0  0.27610  0.33700  0.44560  1.0000
  C   C279      1.0  0.77610  0.16300  0.55440  1.0000
  C   C280      1.0  0.72390  0.83700  0.05440  1.0000
  C   C281      1.0  0.84080  0.31000  0.06320  1.0000
  C   C282      1.0  0.65920  0.69000  0.56320  1.0000
  C   C283      1.0  0.15920  0.81000  0.43680  1.0000
  C   C284      1.0  0.34080  0.19000  0.93680  1.0000
  C   C285      1.0  0.15920  0.69000  0.93680  1.0000
  C   C286      1.0  0.34080  0.31000  0.43680  1.0000
  C   C287      1.0  0.84080  0.19000  0.56320  1.0000
  C   C288      1.0  0.65920  0.81000  0.06320  1.0000
  C   C289      1.0  0.84590  0.24360  0.08370  1.0000
  C   C290      1.0  0.65410  0.75640  0.58370  1.0000
  C   C291      1.0  0.15410  0.74360  0.41630  1.0000
  C   C292      1.0  0.34590  0.25640  0.91630  1.0000
  C   C293      1.0  0.15410  0.75640  0.91630  1.0000
  C   C294      1.0  0.34590  0.24360  0.41630  1.0000
  C   C295      1.0  0.84590  0.25640  0.58370  1.0000
  C   C296      1.0  0.65410  0.74360  0.08370  1.0000
  C   C297      1.0  0.42200  0.11370  0.10820  1.0000
  C   C298      1.0  0.07800  0.88630  0.60820  1.0000
  C   C299      1.0  0.57800  0.61370  0.39180  1.0000
  C   C300      1.0  0.92200  0.38630  0.89180  1.0000
  C   C301      1.0  0.57800  0.88630  0.89180  1.0000
  C   C302      1.0  0.92200  0.11370  0.39180  1.0000
  C   C303      1.0  0.42200  0.38630  0.60820  1.0000
  C   C304      1.0  0.07800  0.61370  0.10820  1.0000
  C   C305      1.0  0.35270  0.12900  0.10160  1.0000
  C   C306      1.0  0.14730  0.87100  0.60160  1.0000
  C   C307      1.0  0.64730  0.62900  0.39840  1.0000
  C   C308      1.0  0.85270  0.37100  0.89840  1.0000
  C   C309      1.0  0.64730  0.87100  0.89840  1.0000
  C   C310      1.0  0.85270  0.12900  0.39840  1.0000
  C   C311      1.0  0.35270  0.37100  0.60160  1.0000
  C   C312      1.0  0.14730  0.62900  0.10160  1.0000
  C   C313      1.0  0.33160  0.19370  0.08250  1.0000
  C   C314      1.0  0.16840  0.80630  0.58250  1.0000
  C   C315      1.0  0.66840  0.69370  0.41750  1.0000
  C   C316      1.0  0.83160  0.30630  0.91750  1.0000
  C   C317      1.0  0.66840  0.80630  0.91750  1.0000
  C   C318      1.0  0.83160  0.19370  0.41750  1.0000
  C   C319      1.0  0.33160  0.30630  0.58250  1.0000
  C   C320      1.0  0.16840  0.69370  0.08250  1.0000
  C   C321      1.0  0.38250  0.24180  0.06770  1.0000
  C   C322      1.0  0.11750  0.75820  0.56770  1.0000
  C   C323      1.0  0.61750  0.74180  0.43230  1.0000
  C   C324      1.0  0.88250  0.25820  0.93230  1.0000
  C   C325      1.0  0.61750  0.75820  0.93230  1.0000
  C   C326      1.0  0.88250  0.24180  0.43230  1.0000
  C   C327      1.0  0.38250  0.25820  0.56770  1.0000
  C   C328      1.0  0.11750  0.74180  0.06770  1.0000
  C   C329      1.0  0.47330  0.16250  0.09630  1.0000
  C   C330      1.0  0.02670  0.83750  0.59630  1.0000
  C   C331      1.0  0.52670  0.66250  0.40370  1.0000
  C   C332      1.0  0.97330  0.33750  0.90370  1.0000
  C   C333      1.0  0.52670  0.83750  0.90370  1.0000
  C   C334      1.0  0.97330  0.16250  0.40370  1.0000
  C   C335      1.0  0.47330  0.33750  0.59630  1.0000
  C   C336      1.0  0.02670  0.66250  0.09630  1.0000
  C   C337      1.0  0.45170  0.22660  0.07460  1.0000
  C   C338      1.0  0.04830  0.77340  0.57460  1.0000
  C   C339      1.0  0.54830  0.72660  0.42540  1.0000
  C   C340      1.0  0.95170  0.27340  0.92540  1.0000
  C   C341      1.0  0.54830  0.77340  0.92540  1.0000
  C   C342      1.0  0.95170  0.22660  0.42540  1.0000
  C   C343      1.0  0.45170  0.27340  0.57460  1.0000
  C   C344      1.0  0.04830  0.72660  0.07460  1.0000
  C   C345      1.0  0.25670  0.21400  0.08060  1.0000
  C   C346      1.0  0.24330  0.78600  0.58060  1.0000
  C   C347      1.0  0.74330  0.71400  0.41940  1.0000
  C   C348      1.0  0.75670  0.28600  0.91940  1.0000
  C   C349      1.0  0.74330  0.78600  0.91940  1.0000
  C   C350      1.0  0.75670  0.21400  0.41940  1.0000
  C   C351      1.0  0.25670  0.28600  0.58060  1.0000
  C   C352      1.0  0.24330  0.71400  0.08060  1.0000
  C   C353      1.0  0.06510  0.38430  0.05470  1.0000
  C   C354      1.0  0.43490  0.61570  0.55470  1.0000
  C   C355      1.0  0.93490  0.88430  0.44530  1.0000
  C   C356      1.0  0.56510  0.11570  0.94530  1.0000
  C   C357      1.0  0.93490  0.61570  0.94530  1.0000
  C   C358      1.0  0.56510  0.38430  0.44530  1.0000
  C   C359      1.0  0.06510  0.11570  0.55470  1.0000
  C   C360      1.0  0.43490  0.88430  0.05470  1.0000
  C   C361      1.0  0.03130  0.44450  0.02700  1.0000
  C   C362      1.0  0.46870  0.55550  0.52700  1.0000
  C   C363      1.0  0.96870  0.94450  0.47300  1.0000
  C   C364      1.0  0.53130  0.05550  0.97300  1.0000
  C   C365      1.0  0.96870  0.55550  0.97300  1.0000
  C   C366      1.0  0.53130  0.44450  0.47300  1.0000
  C   C367      1.0  0.03130  0.05550  0.52700  1.0000
  C   C368      1.0  0.46870  0.94450  0.02700  1.0000
  C   C369      1.0  0.06780  0.48240  0.98830  1.0000
  C   C370      1.0  0.43220  0.51760  0.48830  1.0000
  C   C371      1.0  0.93220  0.98240  0.51170  1.0000
  C   C372      1.0  0.56780  0.01760  0.01170  1.0000
  C   C373      1.0  0.93220  0.51760  0.01170  1.0000
  C   C374      1.0  0.56780  0.48240  0.51170  1.0000
  C   C375      1.0  0.06780  0.01760  0.48830  1.0000
  C   C376      1.0  0.43220  0.98240  0.98830  1.0000
  C   C377      1.0  0.96350  0.46280  0.03870  1.0000
  C   C378      1.0  0.53650  0.53720  0.53870  1.0000
  C   C379      1.0  0.03650  0.96280  0.46130  1.0000
  C   C380      1.0  0.46350  0.03720  0.96130  1.0000
  C   C381      1.0  0.03650  0.53720  0.96130  1.0000
  C   C382      1.0  0.46350  0.46280  0.46130  1.0000
  C   C383      1.0  0.96350  0.03720  0.53870  1.0000
  C   C384      1.0  0.53650  0.96280  0.03870  1.0000
  N   N1        1.0  0.82580  0.14649  0.20843  1.0000
  N   N2        1.0  0.67420  0.85351  0.70843  1.0000
  N   N3        1.0  0.17420  0.64649  0.29157  1.0000
  N   N4        1.0  0.32580  0.35351  0.79157  1.0000
  N   N5        1.0  0.17420  0.85351  0.79157  1.0000
  N   N6        1.0  0.32580  0.14649  0.29157  1.0000
  N   N7        1.0  0.82580  0.35351  0.70843  1.0000
  N   N8        1.0  0.67420  0.64649  0.20843  1.0000
  N   N9        1.0  0.89520  0.07044  0.13953  1.0000
  N   N10       1.0  0.60480  0.92956  0.63953  1.0000
  N   N11       1.0  0.10480  0.57044  0.36047  1.0000
  N   N12       1.0  0.39520  0.42956  0.86047  1.0000
  N   N13       1.0  0.10480  0.92956  0.86047  1.0000
  N   N14       1.0  0.39520  0.07044  0.36047  1.0000
  N   N15       1.0  0.89520  0.42956  0.63953  1.0000
  N   N16       1.0  0.60480  0.57044  0.13953  1.0000
  N   N17       1.0  0.81700  0.04980  0.05384  1.0000
  N   N18       1.0  0.68300  0.95020  0.55384  1.0000
  N   N19       1.0  0.18300  0.54980  0.44616  1.0000
  N   N20       1.0  0.31700  0.45020  0.94616  1.0000
  N   N21       1.0  0.18300  0.95020  0.94616  1.0000
  N   N22       1.0  0.31700  0.04980  0.44616  1.0000
  N   N23       1.0  0.81700  0.45020  0.55384  1.0000
  N   N24       1.0  0.68300  0.54980  0.05384  1.0000
  N   N25       1.0  0.74040  0.00766  0.16278  1.0000
  N   N26       1.0  0.75960  0.99234  0.66278  1.0000
  N   N27       1.0  0.25960  0.50766  0.33722  1.0000
  N   N28       1.0  0.24040  0.49234  0.83722  1.0000
  N   N29       1.0  0.25960  0.99234  0.83722  1.0000
  N   N30       1.0  0.24040  0.00766  0.33722  1.0000
  N   N31       1.0  0.74040  0.49234  0.66278  1.0000
  N   N32       1.0  0.75960  0.50766  0.16278  1.0000
  N   N33       1.0  0.68860  0.12410  0.12509  1.0000
  N   N34       1.0  0.81140  0.87590  0.62509  1.0000
  N   N35       1.0  0.31140  0.62410  0.37491  1.0000
  N   N36       1.0  0.18860  0.37590  0.87491  1.0000
  N   N37       1.0  0.31140  0.87590  0.87491  1.0000
  N   N38       1.0  0.18860  0.12410  0.37491  1.0000
  N   N39       1.0  0.68860  0.37590  0.62509  1.0000
  N   N40       1.0  0.81140  0.62410  0.12509  1.0000
  N   N41       1.0  0.79060  0.20450  0.09552  1.0000
  N   N42       1.0  0.70940  0.79550  0.59552  1.0000
  N   N43       1.0  0.20940  0.70450  0.40448  1.0000
  N   N44       1.0  0.29060  0.29550  0.90448  1.0000
  N   N45       1.0  0.20940  0.79550  0.90448  1.0000
  N   N46       1.0  0.29060  0.20450  0.40448  1.0000
  N   N47       1.0  0.79060  0.29550  0.59552  1.0000
  N   N48       1.0  0.70940  0.70450  0.09552  1.0000
  N   N49       1.0  0.10010  0.23690  0.22360  1.0000
  N   N50       1.0  0.39990  0.76310  0.72360  1.0000
  N   N51       1.0  0.89990  0.73690  0.27640  1.0000
  N   N52       1.0  0.60010  0.26310  0.77640  1.0000
  N   N53       1.0  0.89990  0.76310  0.77640  1.0000
  N   N54       1.0  0.60010  0.23690  0.27640  1.0000
  N   N55       1.0  0.10010  0.26310  0.72360  1.0000
  N   N56       1.0  0.39990  0.73690  0.22360  1.0000
  N   N57       1.0  0.03240  0.18240  0.04820  1.0000
  N   N58       1.0  0.46760  0.81760  0.54820  1.0000
  N   N59       1.0  0.96760  0.68240  0.45180  1.0000
  N   N60       1.0  0.53240  0.31760  0.95180  1.0000
  N   N61       1.0  0.96760  0.81760  0.95180  1.0000
  N   N62       1.0  0.53240  0.18240  0.45180  1.0000
  N   N63       1.0  0.03240  0.31760  0.54820  1.0000
  N   N64       1.0  0.46760  0.68240  0.04820  1.0000
  O   O1        1.0  0.35560  0.96590  0.18340  1.0000
  O   O2        1.0  0.14440  0.03410  0.68340  1.0000
  O   O3        1.0  0.64440  0.46590  0.31660  1.0000
  O   O4        1.0  0.85560  0.53410  0.81660  1.0000
  O   O5        1.0  0.64440  0.03410  0.81660  1.0000
  O   O6        1.0  0.85560  0.96590  0.31660  1.0000
  O   O7        1.0  0.35560  0.53410  0.68340  1.0000
  O   O8        1.0  0.14440  0.46590  0.18340  1.0000
  O   O9        1.0  0.32227  0.85817  0.16242  1.0000
  O   O10       1.0  0.17773  0.14183  0.66242  1.0000
  O   O11       1.0  0.67773  0.35817  0.33758  1.0000
  O   O12       1.0  0.82227  0.64183  0.83758  1.0000
  O   O13       1.0  0.67773  0.14183  0.83758  1.0000
  O   O14       1.0  0.82227  0.85817  0.33758  1.0000
  O   O15       1.0  0.32227  0.64183  0.66242  1.0000
  O   O16       1.0  0.17773  0.35817  0.16242  1.0000
  O   O17       1.0  0.21080  0.17322  0.09742  1.0000
  O   O18       1.0  0.28920  0.82678  0.59742  1.0000
  O   O19       1.0  0.78920  0.67322  0.40258  1.0000
  O   O20       1.0  0.71080  0.32678  0.90258  1.0000
  O   O21       1.0  0.78920  0.82678  0.90258  1.0000
  O   O22       1.0  0.71080  0.17322  0.40258  1.0000
  O   O23       1.0  0.21080  0.32678  0.59742  1.0000
  O   O24       1.0  0.28920  0.67322  0.09742  1.0000
  O   O25       1.0  0.24191  0.27537  0.06569  1.0000
  O   O26       1.0  0.25809  0.72463  0.56569  1.0000
  O   O27       1.0  0.75809  0.77537  0.43431  1.0000
  O   O28       1.0  0.74191  0.22463  0.93431  1.0000
  O   O29       1.0  0.75809  0.72463  0.93431  1.0000
  O   O30       1.0  0.74191  0.27537  0.43431  1.0000
  O   O31       1.0  0.24191  0.22463  0.56569  1.0000
  O   O32       1.0  0.25809  0.77537  0.06569  1.0000
  O   O33       1.0  0.12689  0.36956  0.04371  1.0000
  O   O34       1.0  0.37311  0.63044  0.54371  1.0000
  O   O35       1.0  0.87311  0.86956  0.45629  1.0000
  O   O36       1.0  0.62689  0.13044  0.95629  1.0000
  O   O37       1.0  0.87311  0.63044  0.95629  1.0000
  O   O38       1.0  0.62689  0.36956  0.45629  1.0000
  O   O39       1.0  0.12689  0.13044  0.54371  1.0000
  O   O40       1.0  0.37311  0.86956  0.04371  1.0000
  O   O41       1.0  0.03019  0.34818  0.08830  1.0000
  O   O42       1.0  0.46981  0.65182  0.58830  1.0000
  O   O43       1.0  0.96981  0.84818  0.41170  1.0000
  O   O44       1.0  0.53019  0.15182  0.91170  1.0000
  O   O45       1.0  0.96981  0.65182  0.91170  1.0000
  O   O46       1.0  0.53019  0.34818  0.41170  1.0000
  O   O47       1.0  0.03019  0.15182  0.58830  1.0000
  O   O48       1.0  0.46981  0.84818  0.08830  1.0000
  O   O49       1.0  0.09480  0.22710  0.27330  1.0000
  O   O50       1.0  0.40520  0.77290  0.77330  1.0000
  O   O51       1.0  0.90520  0.72710  0.22670  1.0000
  O   O52       1.0  0.59480  0.27290  0.72670  1.0000
  O   O53       1.0  0.90520  0.77290  0.72670  1.0000
  O   O54       1.0  0.59480  0.22710  0.22670  1.0000
  O   O55       1.0  0.09480  0.27290  0.77330  1.0000
  O   O56       1.0  0.40520  0.72710  0.27330  1.0000
  O   O57       1.0  0.14890  0.21369  0.19669  1.0000
  O   O58       1.0  0.35110  0.78631  0.69669  1.0000
  O   O59       1.0  0.85110  0.71369  0.30331  1.0000
  O   O60       1.0  0.64890  0.28631  0.80331  1.0000
  O   O61       1.0  0.85110  0.78631  0.80331  1.0000
  O   O62       1.0  0.64890  0.21369  0.30331  1.0000
  O   O63       1.0  0.14890  0.28631  0.69669  1.0000
  O   O64       1.0  0.35110  0.71369  0.19669  1.0000
  O   O65       1.0  0.05495  0.27279  0.19816  1.0000
  O   O66       1.0  0.44505  0.72721  0.69816  1.0000
  O   O67       1.0  0.94505  0.77279  0.30184  1.0000
  O   O68       1.0  0.55495  0.22721  0.80184  1.0000
  O   O69       1.0  0.94505  0.72721  0.80184  1.0000
  O   O70       1.0  0.55495  0.27279  0.30184  1.0000
  O   O71       1.0  0.05495  0.22721  0.69816  1.0000
  O   O72       1.0  0.44505  0.77279  0.19816  1.0000
  O   O73       1.0  0.07921  0.21618  0.02388  1.0000
  O   O74       1.0  0.42079  0.78382  0.52388  1.0000
  O   O75       1.0  0.92079  0.71618  0.47612  1.0000
  O   O76       1.0  0.57921  0.28382  0.97612  1.0000
  O   O77       1.0  0.92079  0.78382  0.97612  1.0000
  O   O78       1.0  0.57921  0.21618  0.47612  1.0000
  O   O79       1.0  0.07921  0.28382  0.52388  1.0000
  O   O80       1.0  0.42079  0.71618  0.02388  1.0000
  O   O81       1.0  0.03350  0.18494  0.09961  1.0000
  O   O82       1.0  0.46650  0.81506  0.59961  1.0000
  O   O83       1.0  0.96650  0.68494  0.40039  1.0000
  O   O84       1.0  0.53350  0.31506  0.90039  1.0000
  O   O85       1.0  0.96650  0.81506  0.90039  1.0000
  O   O86       1.0  0.53350  0.18494  0.40039  1.0000
  O   O87       1.0  0.03350  0.31506  0.59961  1.0000
  O   O88       1.0  0.46650  0.68494  0.09961  1.0000
  O   O89       1.0  0.98780  0.14980  0.02400  1.0000
  O   O90       1.0  0.51220  0.85020  0.52400  1.0000
  O   O91       1.0  0.01220  0.64980  0.47600  1.0000
  O   O92       1.0  0.48780  0.35020  0.97600  1.0000
  O   O93       1.0  0.01220  0.85020  0.97600  1.0000
  O   O94       1.0  0.48780  0.14980  0.47600  1.0000
  O   O95       1.0  0.98780  0.35020  0.52400  1.0000
  O   O96       1.0  0.51220  0.64980  0.02400  1.0000
